Matlab-interface/circuit16_matlab.glm
///////////////////////////////////////////////////////; 
// This glm created by 'Milsoft to GridLabD Export'. //; 
//             Sun Jan 24 11:45:47 2016              //; 
///////////////////////////////////////////////////////; 

//#include "battery_schedule.glm";
#set verbose=1
#set debug=1

// link with matlab
link "F16_link_TCL.link";

clock {																							///MODIFIED CLOCK START/STOP TIMES///
		  starttime '2016-07-08 00:00:00';
		  stoptime '2016-07-09 00:00:00';
		  } 

module powerflow{ 																				///MODIFIED - SOLVER METHOD CHANGED TO NR///
		  solver_method NR;
		  default_maximum_voltage_error 1e-6;
		  }
module tape;																					///ADDED MODULE TAPE///
module generators;
module climate;
module residential;																				///ADDED MODULE RESIDENTIAL///


// Note: Number Of Looped Switches in WindMil = 0 

object node {																					///MODIFIED - BUSTYPE CHANGED TO "SWING"///
          name            TA-3 SOURCE; 
          phases          ABCN; 
          bustype         SWING; 
          voltage_A       +69715.03906250+0.00000000j; 
          voltage_B       -34857.51953125-60374.99218750j; 
          voltage_C       -34857.51953125+60374.99218750j; 
          nominal_voltage 66395.28125000; 
          } 

object recloser {
          name                TR-1 115KV; 
          from                TA-3 SOURCE; 
          to                  TR-1 115KV_n; 
          phases              ABCN; 
          max_number_of_tries 2; 
          } 

object node {name   TR-1 115KV_n; phases ABCN; nominal_voltage 66395.28125000;  } 

object transformer {
          name   TR-1 (10_D3_38); 
          from   TR-1 115KV_n; 
          to     TR-1 (10_D3_38)_n; 
          phases ABCN; 
          configuration WYE_WYE-TR-1 TERTIARY-66395To7967V; 
          } 

object node {name   TR-1 (10_D3_38)_n; phases ABCN; nominal_voltage 7967.43408203;  } 

object recloser {
          name                TR-1 13_D3_8KV (1960); 
          from                TR-1 (10_D3_38)_n; 
          to                  TR-1 13_D3_8KV (1960)_n; 
          phases              ABCN; 
          max_number_of_tries 0; 
          } 

object node {name   TR-1 13_D3_8KV (1960)_n; phases ABCN; nominal_voltage 7967.43408203;  } 

object underground_line {
          name   TC BUS; 
          from   TR-1 13_D3_8KV (1960)_n; 
          to     TC BUS_n; 
          phases ABCN; 
          length 10.00000000; 
          configuration _13 BUS ZABC__1000 MCM CU 220M; 
          } 

object node {name   TC BUS_n; phases ABCN; nominal_voltage 7967.43408203;  } 

object recloser {
          name                TC-2 1949 (UG); 
          from                TC BUS_n; 
          to                  TC-2 1949 (UG)_n; 
          phases              ABCN; 
          max_number_of_tries 0; 
          } 

object node {name   TC-2 1949 (UG)_n; phases ABCN; nominal_voltage 7967.43408203;  } 

object underground_line {
          name   TC2 TIE; 
          from   TC-2 1949 (UG)_n; 
          to     TC2 TIE_n; 
          phases ABCN; 
          length 20.00000000; 
          configuration _13 BUS ZABC__1000 MCM CU 220M; 
          } 

object node {name   TC2 TIE_n; phases ABCN; nominal_voltage 7967.43408203;  } 

object recloser {
          name                _1948-1931; 
          from                TC2 TIE_n; 
          to                  _1948-1931_n; 
          phases              ABCN; 
          max_number_of_tries 2; 
          } 

object node {name   _1948-1931_n; phases ABCN; nominal_voltage 7967.43408203;  } 

//*****************************OBJECTS FOR PV/BATTERY SYSTEM*************************
object underground_line {
          name   TC1 TIE; 
          from   _1948-1931_n; 
          to     PV_Battery_meter; 
          phases ABCN; 
          length 20.00000000; 
          configuration _13 BUS ZABC__500 MCM CU (x2); 
          } 

//object node {name   TC1 TIE_n; phases ABCN; nominal_voltage 7967.43408203;  } 

object meter {
	name		PV_Battery_meter;
	phases		ABCN;
	nominal_voltage 7967.43408203;
}



//*****************************END OBJECTS FOR PV/BATTERY SYSTEM**********************

object underground_line {
          name   TC2 UG (1000mcm); 
          from   TC-2 1949 (UG)_n; 
          to     TC2 UG (1000mcm)_n; 
          phases ABCN; 
          length 7800.00000000; 
          configuration _3PH UGABC__1000 MCM CU 220M; 
          } 

object node {name   TC2 UG (1000mcm)_n; phases ABCN; nominal_voltage 7967.43408203;  } 

object recloser {
          name                TC-2 BUS; 
          from                TC2 UG (1000mcm)_n; 
          to                  TC-2 BUS_n; 
          phases              ABCN; 
          max_number_of_tries 0; 
          } 

object node {name   TC-2 BUS_n; phases ABCN; nominal_voltage 7967.43408203;  } 

object underground_line {
          name   TC-2 13_D3_8KV IN; 
          from   TC-2 BUS_n; 
          to     TC-2 13_D3_8KV IN_n; 
          phases ABCN; 
          length 20.00000000; 
          configuration _13 BUS ZABC__1000 MCM CU 220M; 
          } 

object node {name   TC-2 13_D3_8KV IN_n; phases ABCN; nominal_voltage 7967.43408203;  } 

object underground_line {
          name   TC2 161718; 
          from   TC-2 13_D3_8KV IN_n; 
          to     TC2 161718_n; 
          phases ABCN; 
          length 10.00000000; 
          configuration _13 BUS ZABC__1000 MCM CU 220M; 
          } 

object node {name   TC2 161718_n; phases ABCN; nominal_voltage 7967.43408203;  } 

object underground_line {
          name   TC2 1718; 
          from   TC2 161718_n; 
          to     TC2 1718_n; 
          phases ABCN; 
          length 10.00000000; 
          configuration _13 BUS ZABC__1000 MCM CU 220M; 
          } 

object node {name   TC2 1718_n; phases ABCN; nominal_voltage 7967.43408203;  } 

object underground_line {
          name   TC2 18; 
          from   TC2 1718_n; 
          to     TC2 18_n; 
          phases ABCN; 
          length 10.00000000; 
          configuration _13 BUS ZABC__1000 MCM CU 220M; 
          } 

object node {name   TC2 18_n; phases ABCN; nominal_voltage 7967.43408203;  } 

object recloser {
          name                FDR 16 OCD; 
          from                TC2 161718_n; 
          to                  FDR 16 OCD_n; 
          phases              ABCN; 
          max_number_of_tries 0; 
          } 

object node {name   FDR 16 OCD_n; phases ABCN; nominal_voltage 7967.43408203;  } 

object underground_line {
          name   _1600; 
          from   FDR 16 OCD_n; 
          to     _1600_n; 
          phases ABCN; 
          length 450.00000000; 
          configuration _3PH UGABC__500 MCM ALUM 175M; 
          } 

object node {name   _1600_n; phases ABCN; nominal_voltage 7967.43408203;  } 

object underground_line {
          name   _1600A; 
          from   _1600_n; 
          to     _1600A_n; 
          phases ABCN; 
          length 50.00000000; 
          configuration _3PH UGABC__500 MCM ALUM 175M; 
          } 

object node {name   _1600A_n; phases ABCN; nominal_voltage 7967.43408203;  } 

object underground_line {
          name   _1601; 
          from   _1600A_n; 
          to     _1601_n; 
          phases ABCN; 
          length 500.00000000; 
          configuration _3PH UGABC__500 MCM ALUM 175M; 
          } 

object node {name   _1601_n; phases ABCN; nominal_voltage 7967.43408203;  } 

object underground_line {
          name   _1601A; 
          from   _1601_n; 
          to     _1601A_n; 
          phases ABCN; 
          length 250.00000000; 
          configuration _3PH UGABC__500 MCM ALUM 175M; 
          } 

object node {name   _1601A_n; phases ABCN; nominal_voltage 7967.43408203;  } 

object underground_line {
          name   _1602; 
          from   _1601A_n; 
          to     _1602_n; 
          phases ABCN; 
          length 500.00000000; 
          configuration _3PH UGABC__500 MCM ALUM 175M; 
          } 

object node {name   _1602_n; phases ABCN; nominal_voltage 7967.43408203;  } 

object underground_line {
          name   _1603; 
          from   _1602_n; 
          to     _1603_n; 
          phases ABCN; 
          length 500.00000000; 
          configuration _3PH UGABC__500 MCM ALUM 175M; 
          } 

object node {name   _1603_n; phases ABCN; nominal_voltage 7967.43408203;  } 

object underground_line {
          name   _1604; 
          from   _1603_n; 
          to     _1604_n; 
          phases ABCN; 
          length 200.00000000; 
          configuration _3PH UGABC__500 MCM ALUM 175M; 
          } 

object node {name   _1604_n; phases ABCN; nominal_voltage 7967.43408203;  } 

object underground_line {
          name   _1604A; 
          from   _1604_n; 
          to     _1604A_n; 
          phases ABCN; 
          length 200.00000000; 
          configuration _3PH UGABC__500 MCM ALUM 175M; 
          } 

object node {name   _1604A_n; phases ABCN; nominal_voltage 7967.43408203;  } 

																							///SWITCH REMOVED///
																							///SWITCH INTRODUCED AGAIN TO INCLUDE SUPERMARKET///
																							///11/10/16///

object switch {																				
          name   SW 141516-A; 																
          from   _1604A_n; 																	
          to     _1504B_n; 
          phases ABCN; 
          status CLOSED; 
          } 

//*************OBJECTS FOR SUPERMARKET LOAD IMPLEMENTATION START HERE***********************

object node {name   _1504B_n; phases ABCN; nominal_voltage 7967.43408203;  }

object underground_line {
          name   MRKT1; 
          from   _1504B_n; 
          to     MRKT1_n; 
          phases ABCN; 
          length 200.00000000; 
          configuration _3PH UGCBA__1/0 SOLID 175M 1/3N; 
          }

object node {name   MRKT1_n; phases ABCN; nominal_voltage 7967.43408203;  }

object fuse {
          name          MRKT_F; 
          from          MRKT1_n; 
          to            MRKT_F_n; 
          phases        ABCN; 
          current_limit 79.59360504; 
          mean_replacement_time 1.0 ; 
          repair_dist_type      NONE; 
          }
          
object node {name   MRKT_F_n; phases ABCN; nominal_voltage 7967.43408203;  }

object underground_line {
          name   MRKT2; 
          from   MRKT_F_n; 
          to     MRKT2_n; 
          phases ABCN; 
          length 80.00000000; 
          configuration _3PH UGCBA__1/0 SOLID 175M 1/3N; 
          }

object node {name   MRKT2_n; phases ABCN; nominal_voltage 7967.43408203;  }

//*****************END OBJECTS FOR SUPERMARKET LOAD IMPLEMENTATION**************************

object overhead_line {
          name   _1605; 
          from   _1604A_n; 
          to     _1605_n; 
          phases ABCN; 
          length 150.00000000; 
          configuration _8ft CrossarmABCN__1/0 HdCu; 
          } 

object node {name   _1605_n; phases ABCN; nominal_voltage 7967.43408203;  } 

object overhead_line {
          name   _1606; 
          from   _1605_n; 
          to     _1606_n; 															
          phases ABCN; 
          length 150.00000000; 
          configuration _8ft CrossarmABCN__1/0 HdCu; 
          } 

object node {name   _1606_n; phases ABCN; nominal_voltage 7967.43408203;  } 		

object underground_line {
          name   _1606A; 
          from   _1606_n; 
          to     _1606A_n; 
          phases BN; 
          length 220.00000000; 
          configuration _1PH UGB__1/0 SOLID 175M FN; 
          } 

object node {name   _1606A_n; phases BN; nominal_voltage 7967.43408203;  } 

object underground_line {
          name   UG1104; 
          from   _1606A_n; 
          to     UG1104_n; 							
          phases BN; 
          length 70.00000000; 
          configuration _1PH UGB__1/0 SOLID 175M FN; 
          } 

object node {name   UG1104_n; phases BN; nominal_voltage 7967.43408203;  }

object overhead_line {
          name   _1606B; 
          from   _1606_n; 
          to     _1606B_n; 
          phases ABCN; 
          length 380.00000000; 
          configuration _8ft CrossarmABCN__1/0 HdCu; 
          } 

object node {name   _1606B_n; phases ABCN; nominal_voltage 7967.43408203;  } 

object underground_line {
          name   _1606C; 
          from   _1606B_n; 
          to     _1606C_n; 
          phases ABCN; 
          length 50.00000000; 
          configuration _3PH UGABC__500 MCM ALUM 175M; 
          } 

object underground_line {
          name   _1650A; 
          from   _1650_n; 
          to     _1650A_n; 
          phases ABCN; 
          length 250.00000000; 
          configuration _3PH UGABC__500 MCM ALUM 175M; 
          } 

object node {name   _1650A_n; phases ABCN; nominal_voltage 7967.43408203;  } 

object overhead_line {
          name   _1651; 
          from   _1650A_n; 
          to     _1651_n; 
          phases ABCN; 
          length 450.00000000; 
          configuration _8ft CrossarmABCN__1/0 HdCu; 
          } 

object node {name   _1651_n; phases ABCN; nominal_voltage 7967.43408203;  } 

object overhead_line {
          name   _1651A1; 
          from   _1651_n; 
          to     _1651A1_n; 
          phases ABCN; 
          length 50.00000000; 
          configuration _8ft CrossarmABCN__1/0 HdCu; 
          } 

object node {name   _1651A1_n; phases ABCN; nominal_voltage 7967.43408203;  } 

object recloser {
          name                SAN IDELFONSO 16-2; 
          from                _1651A1_n; 
          to                  SAN IDELFONSO 16-2_n; 
          phases              ABCN; 
          max_number_of_tries 2; 
          } 

object node {name   SAN IDELFONSO 16-2_n; phases ABCN; nominal_voltage 7967.43408203;  } 

object overhead_line {
          name   _1651A; 
          from   SAN IDELFONSO 16-2_n; 
          to     _1651A_n; 
          phases ABCN; 
          length 500.00000000; 
          configuration _8ft CrossarmABCN__1/0 HdCu; 
          } 

object node {name   _1651A_n; phases ABCN; nominal_voltage 7967.43408203;  } 

object overhead_line {
          name   _1651A2; 
          from   _1651A_n; 
          to     _1651A2_n; 
          phases ABCN; 
          length 500.00000000; 
          configuration _8ft CrossarmABCN__1/0 HdCu; 
          } 

object node {name   _1651A2_n; phases ABCN; nominal_voltage 7967.43408203;  } 

object fuse {
          name          OCD2180; 
          from          _1651A2_n; 
          to            OCD2180_n; 
          phases        CN; 
          current_limit 61.18894958; 
          mean_replacement_time 1.0 ; 
          repair_dist_type      NONE; 
          } 

object node {name   OCD2180_n; phases CN; nominal_voltage 7967.43408203;  } 

object underground_line {
          name   UG2176; 
          from   OCD2180_n; 
          to     UG2176_n; 
          phases CN; 
          length 175.00000000; 
          configuration _1PH UGC__1/0 SOLID 175M FN; 
          } 

object node {name   UG2176_n; phases CN; nominal_voltage 7967.43408203;  } 

object underground_line {
          name   UG2177; 
          from   UG2176_n; 
          to     UG2177_n; 
          phases CN; 
          length 300.00000000; 
          configuration _1PH UGC__1/0 SOLID 175M FN; 
          } 

object node {name   UG2177_n; phases CN; nominal_voltage 7967.43408203;  } 

object underground_line {
          name   UG2178; 
          from   UG2177_n; 
          to     UG2178_n; 
          phases CN; 
          length 100.00000000; 
          configuration _1PH UGC__1/0 SOLID 175M FN; 
          } 

object node {name   UG2178_n; phases CN; nominal_voltage 7967.43408203;  } 

object fuse {
          name          OCD2179; 
          from          _1651A2_n; 
          to            OCD2179_n; 
          phases        AN; 
          current_limit 61.18894958; 
          mean_replacement_time 1.0 ; 
          repair_dist_type      NONE; 
          } 

object node {name   OCD2179_n; phases AN; nominal_voltage 7967.43408203;  } 

object underground_line {
          name   UG2171; 
          from   OCD2179_n; 
          to     UG2171_n; 
          phases AN; 
          length 175.00000000; 
          configuration _1PH UGA__1/0 SOLID 175M FN; 
          } 

object node {name   UG2171_n; phases AN; nominal_voltage 7967.43408203;  } 

object underground_line {
          name   UG2172; 
          from   UG2171_n; 
          to     UG2172_n; 
          phases AN; 
          length 200.00000000; 
          configuration _1PH UGA__1/0 SOLID 175M FN; 
          } 

object node {name   UG2172_n; phases AN; nominal_voltage 7967.43408203;  } 			

object underground_line {
          name   UG2173; 
          from   UG2172_n; 
          to     UG2173_n; 
          phases AN; 
          length 470.00000000; 
          configuration _1PH UGA__1/0 SOLID 175M FN; 
          } 

object node {name   UG2173_n; phases AN; nominal_voltage 7967.43408203;  } 

object underground_line {
          name   UG2174; 
          from   UG2172_n; 
          to     UG2174_n; 
          phases AN; 
          length 250.00000000; 
          configuration _1PH UGA__1/0 SOLID 175M FN; 
          } 

object node {name   UG2174_n; phases AN; nominal_voltage 7967.43408203;  } 

object underground_line {
          name   UG2175; 
          from   UG2174_n; 
          to     UG2175_n; 
          phases AN; 
          length 1050.00000000; 
          configuration _1PH UGA__1/0 SOLID 175M FN; 
          } 

object node {name   UG2175_n; phases AN; nominal_voltage 7967.43408203;  } 

object overhead_line {
          name   _1653; 
          from   _1651A2_n; 
          to     _1653_n; 
          phases ABCN; 
          length 420.00000000; 
          configuration _8ft CrossarmABCN__1/0 HdCu; 
          } 

object node {name   _1653_n; phases ABCN; nominal_voltage 7967.43408203;  } 

object overhead_line {
          name   _1665; 
          from   _1653_n; 
          to     _1665_n; 
          phases ABCN; 
          length 1550.00000000; 
          configuration _8ft CrossarmABCN__1/0 HdCu; 
          } 

object node {name   _1665_n; phases ABCN; nominal_voltage 7967.43408203;  } 

object fuse {
          name          F-2 L1-1; 
          from          _1665_n; 
          to            F-2 L1-1_n; 
          phases        ABCN; 
          current_limit 39.36728287; 
          mean_replacement_time 1.0 ; 
          repair_dist_type      NONE; 
          } 

object node {name   F-2 L1-1_n; phases ABCN; nominal_voltage 7967.43408203;  } 

object underground_line {
          name   _1666; 
          from   F-2 L1-1_n; 
          to     _1666_n; 
          phases ABCN; 
          length 720.00000000; 
          configuration _3PH UGABC__4/0 ALUM 15KV 1/3N; 
          } 

object node {name   _1666_n; phases ABCN; nominal_voltage 7967.43408203;  } 

object overhead_line {
          name   _1667; 
          from   _1666_n; 
          to     _1667_n; 
          phases ABCN; 
          length 250.00000000; 
          configuration _8ft CrossarmABCN__1/0 HdCu; 
          } 

object node {name   _1667_n; phases ABCN; nominal_voltage 7967.43408203;  } 

object fuse {
          name          F-2 L3-1; 
          from          _1667_n; 
          to            F-2 L3-1_n; 
          phases        ACN; 
          current_limit 193.58869934; 
          mean_replacement_time 1.0 ; 
          repair_dist_type      NONE; 
          } 

object node {name   F-2 L3-1_n; phases ACN; nominal_voltage 7967.43408203;  } 

object overhead_line {
          name   _1668; 
          from   F-2 L3-1_n; 
          to     _1668_n; 
          phases ACN; 
          length 830.00000000; 
          configuration _8ft CrossarmACN__#4 HdCu - 3s; 
          } 

object node {name   _1668_n; phases ACN; nominal_voltage 7967.43408203;  } 

object overhead_line {
          name   _1668B; 
          from   _1668_n; 
          to     _1668B_n; 
          phases ACN; 
          length 320.00000000; 
          configuration _8ft CrossarmACN__#4 HdCu - 3s; 
          } 

object node {name   _1668B_n; phases ACN; nominal_voltage 7967.43408203;  } 

object underground_line {
          name   UG357; 
          from   _1668B_n; 
          to     UG357_n; 
          phases AN; 
          length 200.00000000; 
          configuration _1PH UGA__1/0 AL 175MIL FN; 
          } 

object node {name   UG357_n; phases AN; nominal_voltage 7967.43408203;  } 

object overhead_line {
          name   _1668C; 
          from   _1668B_n; 
          to     _1668C_n; 
          phases ACN; 
          length 480.00000000; 
          configuration _8ft CrossarmACN__#4 HdCu - 3s; 
          } 

object node {name   _1668C_n; phases ACN; nominal_voltage 7967.43408203;  } 

object fuse {
          name          F-2 L3-2; 
          from          _1668C_n; 
          to            F-2 L3-2_n; 
          phases        ACN; 
          current_limit 30.27171326; 
          mean_replacement_time 1.0 ; 
          repair_dist_type      NONE; 
          } 

object node {name   F-2 L3-2_n; phases ACN; nominal_voltage 7967.43408203;  } 

object overhead_line {
          name   _1668D; 
          from   F-2 L3-2_n; 
          to     _1668D_n; 
          phases ACN; 
          length 500.00000000; 
          configuration _8ft CrossarmACN__#4 HdCu - 3s; 
          } 

object node {name   _1668D_n; phases ACN; nominal_voltage 7967.43408203;  } 

object overhead_line {
          name   _1668E; 
          from   _1668D_n; 
          to     _1668E_n; 
          phases ACN; 
          length 500.00000000; 
          configuration _8ft CrossarmACN__#4 HdCu - 3s; 
          } 

object node {name   _1668E_n; phases ACN; nominal_voltage 7967.43408203;  } 

object overhead_line {
          name   _1668F; 
          from   _1668E_n; 
          to     _1668F_n; 
          phases ACN; 
          length 500.00000000; 
          configuration _8ft CrossarmACN__#4 HdCu - 3s; 
          } 

object node {name   _1668F_n; phases ACN; nominal_voltage 7967.43408203;  } 

object overhead_line {
          name   _1668G; 
          from   _1668F_n; 
          to     _1668G_n; 
          phases ACN; 
          length 590.59997559; 
          configuration _8ft CrossarmACN__#4 HdCu - 3s; 
          } 

object node {name   _1668G_n; phases ACN; nominal_voltage 7967.43408203;  } 

object overhead_line {
          name   _1669; 
          from   _1667_n; 
          to     _1669_n; 
          phases ABCN; 
          length 300.00000000; 
          configuration _8ft CrossarmABCN__1/0 HdCu; 
          } 

object node {name   _1669_n; phases ABCN; nominal_voltage 7967.43408203;  } 

object overhead_line {
          name   _1669C; 
          from   _1669_n; 
          to     _1669C_n; 
          phases ABCN; 
          length 350.00000000; 
          configuration _8ft CrossarmABCN__1/0 HdCu; 
          } 

object node {name   _1669C_n; phases ABCN; nominal_voltage 7967.43408203;  } 

object overhead_line {
          name   _1669D; 
          from   _1669C_n; 
          to     _1669D_n; 
          phases ABCN; 
          length 310.00000000; 
          configuration _8ft CrossarmABCN__1/0 HdCu; 
          } 

object node {name   _1669D_n; phases ABCN; nominal_voltage 7967.43408203;  } 

object overhead_line {
          name   _1669A; 
          from   _1669_n; 
          to     _1669A_n; 
          phases ABCN; 
          length 280.00000000; 
          configuration _8ft CrossarmABCN__1/0 HdCu; 
          } 

object node {name   _1669A_n; phases ABCN; nominal_voltage 7967.43408203;  } 

object node {name   F-1 L14-1_n; phases ACN; nominal_voltage 7967.43408203;  } 

object overhead_line {
          name   _1644C; 
          from   F-1 L14-1_n; 
          to     _1644C_n; 
          phases ACN; 
          length 253.59469604; 
          configuration C1 25 FT_D3_ (8FT)ACN__#4 HdCu - 3s; 
          } 

object node {name   _1644C_n; phases ACN; nominal_voltage 7967.43408203;  } 

object overhead_line {
          name   _1644C2; 
          from   _1644C_n; 
          to     _1644C2_n; 
          phases ACN; 
          length 200.00000000; 
          configuration C1 25 FT_D3_ (8FT)ACN__#4 HdCu - 3s; 
          } 

object node {name   _1644C2_n; phases ACN; nominal_voltage 7967.43408203;  } 

object overhead_line {
          name   _1644C1; 
          from   _1644C_n; 
          to     _1644C1_n; 
          phases ACN; 
          length 216.40530396; 
          configuration C1 25 FT_D3_ (8FT)ACN__#4 HdCu - 3s; 
          } 

object node {name   _1644C1_n; phases ACN; nominal_voltage 7967.43408203;  } 

object overhead_line {
          name   _1644D; 
          from   F-1 L14-1_n; 
          to     _1644D_n; 
          phases ACN; 
          length 640.00000000; 
          configuration C1 25 FT_D3_ (8FT)ACN__#4 HdCu - 3s; 
          } 

object node {name   _1644D_n; phases ACN; nominal_voltage 7967.43408203;  } 

object overhead_line {
          name   _1644E; 
          from   F-1 L14-1_n; 
          to     _1644E_n; 
          phases ACN; 
          length 300.00000000; 
          configuration C1 25 FT_D3_ (8FT)ACN__#4 HdCu - 3s; 
          } 

object node {name   _1644E_n; phases ACN; nominal_voltage 7967.43408203;  } 

object overhead_line {
          name   _1644E1; 
          from   _1644E_n; 
          to     _1644E1_n; 
          phases ACN; 
          length 700.00000000; 
          configuration C1 25 FT_D3_ (8FT)ACN__#4 HdCu - 3s; 
          } 

object node {name   _1644E1_n; phases ACN; nominal_voltage 7967.43408203;  } 

object overhead_line {
          name   _1644A; 
          from   _1644_n; 
          to     _1644A_n; 
          phases ACN; 
          length 450.00000000; 
          configuration C1 25 FT_D3_ (8FT)ACN__#4 HdCu - 3s; 
          } 

object node {name   _1644A_n; phases ACN; nominal_voltage 7967.43408203;  } 

object overhead_line {
          name   _1644A2; 
          from   _1644A_n; 
          to     _1644A2_n; 
          phases ACN; 
          length 270.00000000; 
          configuration C1 25 FT_D3_ (8FT)ACN__#4 HdCu - 3s; 
          } 

object node {name   _1644A2_n; phases ACN; nominal_voltage 7967.43408203;  } 

object fuse {
          name          F-1 L11-1; 
          from          _1643B_n; 
          to            F-1 L11-1_n; 
          phases        AN; 
          current_limit 61.18894958; 
          mean_replacement_time 1.0 ; 
          repair_dist_type      NONE; 
          } 

object node {name   F-1 L11-1_n; phases AN; nominal_voltage 7967.43408203;  } 

object underground_line {
          name   _1646; 
          from   F-1 L11-1_n; 
          to     _1646_n; 
          phases AN; 
          length 150.00000000; 
          configuration _1PH UGA__1/0 SOLID 175M FN; 
          } 

object node {name   _1646_n; phases AN; nominal_voltage 7967.43408203;  } 

object underground_line {
          name   _1646A; 
          from   _1646_n; 
          to     _1646A_n; 
          phases AN; 
          length 200.00000000; 
          configuration _1PH UGA__1/0 SOLID 175M FN; 
          } 

object node {name   _1646A_n; phases AN; nominal_voltage 7967.43408203;  } 

object underground_line {
          name   _1646B; 
          from   _1646A_n; 
          to     _1646B_n; 
          phases AN; 
          length 400.00000000; 
          configuration _1PH UGA__1/0 SOLID 175M FN; 
          } 

object node {name   _1646B_n; phases AN; nominal_voltage 7967.43408203;  } 

object underground_line {
          name   _1646C; 
          from   _1646B_n; 
          to     _1646C_n; 
          phases AN; 
          length 500.00000000; 
          configuration _1PH UGA__1/0 SOLID 175M FN; 
          } 

object node {name   _1646C_n; phases AN; nominal_voltage 7967.43408203;  } 

object underground_line {
          name   _1646D; 
          from   _1646C_n; 
          to     _1646D_n; 
          phases AN; 
          length 500.00000000; 
          configuration _1PH UGA__1/0 SOLID 175M FN; 
          } 

object node {name   _1646D_n; phases AN; nominal_voltage 7967.43408203;  } 

object underground_line {
          name   _1646E; 
          from   _1646D_n; 
          to     _1646E_n; 
          phases AN; 
          length 250.00000000; 
          configuration _1PH UGA__1/0 SOLID 175M FN; 
          } 

object node {name   _1646E_n; phases AN; nominal_voltage 7967.43408203;  } 

object fuse {
          name          OCD1501; 
          from          OH1497_n; 
          to            OCD1501_n; 
          phases        ABN; 
          current_limit 61.18894958; 
          mean_replacement_time 1.0 ; 
          repair_dist_type      NONE; 
          } 

object node {name   OCD1501_n; phases ABN; nominal_voltage 7967.43408203;  } 

object overhead_line {
          name   OH1499; 
          from   OCD1501_n; 
          to     OH1499_n; 
          phases ABN; 
          length 200.00000000; 
          configuration C1 25 FT_D3_ (8FT)ABN__#4 HdCu - 3s; 
          } 

object node {name   OH1499_n; phases ABN; nominal_voltage 7967.43408203;  } 

object fuse {
          name          F-1 L10-1; 
          from          _1642A_n; 
          to            F-1 L10-1_n; 
          phases        BCN; 
          current_limit 61.18894958; 
          mean_replacement_time 1.0 ; 
          repair_dist_type      NONE; 
          } 

object node {name   F-1 L10-1_n; phases BCN; nominal_voltage 7967.43408203;  } 

object overhead_line {
          name   _1642B; 
          from   F-1 L10-1_n; 
          to     _1642B_n; 
          phases BCN; 
          length 400.00000000; 
          configuration B2 25FT_D3_ (8FT_D3_)BCN__1/0 HdCu; 
          } 

object node {name   _1642B_n; phases BCN; nominal_voltage 7967.43408203;  } 

object overhead_line {
          name   _1642B1; 
          from   _1642B_n; 
          to     _1642B1_n; 
          phases BCN; 
          length 220.00000000; 
          configuration B2 25FT_D3_ (8FT_D3_)BCN__1/0 HdCu; 
          } 

object node {name   _1642B1_n; phases BCN; nominal_voltage 7967.43408203;  } 

object overhead_line {
          name   _1639A; 
          from   _1639_n; 
          to     _1639A_n; 
          phases ABCN; 
          length 100.00000000; 
          configuration C1 25 FT_D3_ (8FT)ABCN__1/0 HdCu; 
          } 

object node {name   _1639A_n; phases ABCN; nominal_voltage 7967.43408203;  } 

object overhead_line {
          name   _1639B; 
          from   _1639A_n; 
          to     _1639B_n; 
          phases ABCN; 
          length 170.00000000; 
          configuration C1 25 FT_D3_ (8FT)ABCN__1/0 HdCu; 
          } 

object node {name   _1639B_n; phases ABCN; nominal_voltage 7967.43408203;  } 

object fuse {
          name          F-1 L15-1; 
          from          _1639B_n; 
          to            F-1 L15-1_n; 
          phases        BCN; 
          current_limit 193.58869934; 
          mean_replacement_time 1.0 ; 
          repair_dist_type      NONE; 
          } 

object node {name   F-1 L15-1_n; phases BCN; nominal_voltage 7967.43408203;  } 

object overhead_line {
          name   _1639C; 
          from   F-1 L15-1_n; 
          to     _1639C_n; 
          phases BCN; 
          length 270.00000000; 
          configuration B2 25FT_D3_ (8FT_D3_)BCN__#4 HdCu - 3s; 
          } 

object node {name   _1639C_n; phases BCN; nominal_voltage 7967.43408203;  } 

object overhead_line {
          name   _1639C11; 
          from   _1639C_n; 
          to     _1639C11_n; 
          phases BCN; 
          length 400.00000000; 
          configuration B2 25FT_D3_ (8FT_D3_)BCN__#4 HdCu - 3s; 
          } 

object node {name   _1639C11_n; phases BCN; nominal_voltage 7967.43408203;  } 

object overhead_line {
          name   _1639C12; 
          from   _1639C11_n; 
          to     _1639C12_n; 
          phases BCN; 
          length 170.00000000; 
          configuration B2 25FT_D3_ (8FT_D3_)BCN__#4 HdCu - 3s; 
          } 

object node {name   _1639C12_n; phases BCN; nominal_voltage 7967.43408203;  } 

object overhead_line {
          name   _1639C1; 
          from   _1639C_n; 
          to     _1639C1_n; 
          phases BCN; 
          length 500.00000000; 
          configuration B2 25FT_D3_ (8FT_D3_)BCN__#4 HdCu - 3s; 
          } 

object node {name   _1639C1_n; phases BCN; nominal_voltage 7967.43408203;  } 

object overhead_line {
          name   _1639C2; 
          from   _1639C1_n; 
          to     _1639C2_n; 
          phases BCN; 
          length 500.00000000; 
          configuration B2 25FT_D3_ (8FT_D3_)BCN__#4 HdCu - 3s; 
          } 

object node {name   _1639C2_n; phases BCN; nominal_voltage 7967.43408203;  } 

object overhead_line {
          name   _1639C3; 
          from   _1639C2_n; 
          to     _1639C3_n; 
          phases BCN; 
          length 500.00000000; 
          configuration B2 25FT_D3_ (8FT_D3_)BCN__#4 HdCu - 3s; 
          } 

object node {name   _1639C3_n; phases BCN; nominal_voltage 7967.43408203;  } 

object overhead_line {
          name   _1639C3A; 
          from   _1639C3_n; 
          to     _1639C3A_n; 
          phases BCN; 
          length 180.00000000; 
          configuration B2 25FT_D3_ (8FT_D3_)BCN__#4 HdCu - 3s; 
          } 

object node {name   _1639C3A_n; phases BCN; nominal_voltage 7967.43408203;  } 

object fuse {
          name          F-1 L15-2; 
          from          _1639C3_n; 
          to            F-1 L15-2_n; 
          phases        BCN; 
          current_limit 61.18894958; 
          mean_replacement_time 1.0 ; 
          repair_dist_type      NONE; 
          } 

object node {name   F-1 L15-2_n; phases BCN; nominal_voltage 7967.43408203;  } 

object overhead_line {
          name   _1639C4; 
          from   F-1 L15-2_n; 
          to     _1639C4_n; 
          phases BCN; 
          length 500.00000000; 
          configuration B2 25FT_D3_ (8FT_D3_)BCN__#4 HdCu - 3s; 
          } 

object node {name   _1639C4_n; phases BCN; nominal_voltage 7967.43408203;  } 

object overhead_line {
          name   _1639C5; 
          from   _1639C4_n; 
          to     _1639C5_n; 
          phases BCN; 
          length 500.00000000; 
          configuration B2 25FT_D3_ (8FT_D3_)BCN__#4 HdCu - 3s; 
          } 

object node {name   _1639C5_n; phases BCN; nominal_voltage 7967.43408203;  } 

object node {name   NODE140_n; parent _1624_n; phases ABCN; nominal_voltage 7967.43408203;  } 

object underground_line {
          name   _1650; 
          from   _1624_n; 
          to     _1650_n; 
          phases ABCN; 
          length 350.00000000; 
          configuration _3PH UGABC__500 MCM ALUM 175M; 
          } 

object node {name   _1650_n; phases ABCN; nominal_voltage 7967.43408203;  } 

object node {name   _1638_n; phases ABCN; nominal_voltage 7967.43408203;  } 

object fuse {
          name          F-1 L8-1; 
          from          _1638_n; 
          to            F-1 L8-1_n; 
          phases        ABCN; 
          current_limit 76.83215332; 
          mean_replacement_time 1.0 ; 
          repair_dist_type      NONE; 
          } 

object node {name   F-1 L8-1_n; phases ABCN; nominal_voltage 7967.43408203;  } 

object overhead_line {
          name   _1638A; 
          from   F-1 L8-1_n; 
          to     _1638A_n; 
          phases ABCN; 
          length 550.00000000; 
          configuration C1 25 FT_D3_ (8FT)ABCN__1/0 HdCu; 
          } 

object node {name   _1638A_n; phases ABCN; nominal_voltage 7967.43408203;  } 

object overhead_line {
          name   _1638B; 
          from   _1638A_n; 
          to     _1638B_n; 
          phases ABCN; 
          length 170.00000000; 
          configuration B2 25FT_D3_ (8FT_D3_)ABCN__1/0 HdCu; 
          } 

object node {name   _1638B_n; phases ABCN; nominal_voltage 7967.43408203;  } 

object overhead_line {
          name   _1638c; 
          from   _1638B_n; 
          to     _1638c_n; 
          phases BCN; 
          length 150.00000000; 
          configuration B2 25FT_D3_ (8FT_D3_)BCN__#4 HdCu - 3s; 
          } 

object node {name   _1638c_n; phases BCN; nominal_voltage 7967.43408203;  } 

object overhead_line {
          name   _1639; 
          from   _1638_n; 
          to     _1639_n; 
          phases ABCN; 
          length 500.00000000; 
          configuration C1 25 FT_D3_ (8FT)ABCN__1/0 HdCu; 
          } 

object node {name   _1639_n; phases ABCN; nominal_voltage 7967.43408203;  } 

object overhead_line {
          name   _1640; 
          from   _1639_n; 
          to     _1640_n; 
          phases ABCN; 
          length 450.00000000; 
          configuration C1 25 FT_D3_ (8FT)ABCN__1/0 HdCu; 
          } 

object node {name   _1640_n; phases ABCN; nominal_voltage 7967.43408203;  } 

object overhead_line {
          name   _1640A; 
          from   _1640_n; 
          to     _1640A_n; 
          phases ABCN; 
          length 350.00000000; 
          configuration C1 25 FT_D3_ (8FT)ABCN__1/0 HdCu; 
          } 

object node {name   _1640A_n; phases ABCN; nominal_voltage 7967.43408203;  } 

object fuse {
          name          F-1 L9-1; 
          from          _1640A_n; 
          to            F-1 L9-1_n; 
          phases        ABCN; 
          current_limit 61.18894958; 
          mean_replacement_time 1.0 ; 
          repair_dist_type      NONE; 
          } 

object node {name   F-1 L9-1_n; phases ABCN; nominal_voltage 7967.43408203;  } 

object underground_line {
          name   _1640A1; 
          from   F-1 L9-1_n; 
          to     _1640A1_n; 
          phases ABCN; 
          length 450.00000000; 
          configuration _3PH UGABC__500 MCM ALUM 175M; 
          } 

object node {name   _1640A1_n; phases ABCN; nominal_voltage 7967.43408203;  } 

object overhead_line {
          name   _1641; 
          from   _1640A_n; 
          to     _1641_n; 
          phases ABCN; 
          length 800.00000000; 
          configuration C1 25 FT_D3_ (8FT)ABCN__1/0 HdCu; 
          } 

object node {name   _1641_n; phases ABCN; nominal_voltage 7967.43408203;  } 

object overhead_line {
          name   _1641A; 
          from   _1641_n; 
          to     _1641A_n; 
          phases ABCN; 
          length 650.00000000; 
          configuration C1 25 FT_D3_ (8FT)ABCN__1/0 HdCu; 
          } 

object node {name   _1641A_n; phases ABCN; nominal_voltage 7967.43408203;  } 

object overhead_line {
          name   OH1496; 
          from   _1641A_n; 
          to     OH1496_n; 
          phases BCN; 
          length 350.00000000; 
          configuration C1 25 FT_D3_ (8FT)BCN__#4 HdCu - 3s; 
          } 

object node {name   OH1496_n; phases BCN; nominal_voltage 7967.43408203;  } 

object overhead_line {
          name   _1642; 
          from   _1641A_n; 
          to     _1642_n; 
          phases ABCN; 
          length 200.00000000; 
          configuration C1 25 FT_D3_ (8FT)ABCN__1/0 HdCu; 
          } 

object node {name   _1642_n; phases ABCN; nominal_voltage 7967.43408203;  } 

object overhead_line {
          name   _1642A; 
          from   _1642_n; 
          to     _1642A_n; 
          phases ABCN; 
          length 400.00000000; 
          configuration C1 25 FT_D3_ (8FT)ABCN__1/0 HdCu; 
          } 

object node {name   _1642A_n; phases ABCN; nominal_voltage 7967.43408203;  } 

object overhead_line {
          name   OH1497; 
          from   _1642A_n; 
          to     OH1497_n; 
          phases ABCN; 
          length 260.00000000; 
          configuration C1 25 FT_D3_ (8FT)ABCN__1/0 HdCu; 
          } 

object node {name   OH1497_n; phases ABCN; nominal_voltage 7967.43408203;  } 

object overhead_line {
          name   OH1498; 
          from   OH1497_n; 
          to     OH1498_n; 
          phases ABCN; 
          length 380.00000000; 
          configuration C1 25 FT_D3_ (8FT)ABCN__1/0 HdCu; 
          } 

object node {name   OH1498_n; phases ABCN; nominal_voltage 7967.43408203;  } 

object fuse {
          name          OCD1502; 
          from          OH1498_n; 
          to            OCD1502_n; 
          phases        BCN; 
          current_limit 61.18894958; 
          mean_replacement_time 1.0 ; 
          repair_dist_type      NONE; 
          } 

object node {name   OCD1502_n; phases BCN; nominal_voltage 7967.43408203;  } 

object overhead_line {
          name   OH1500; 
          from   OCD1502_n; 
          to     OH1500_n; 
          phases BCN; 
          length 375.00000000; 
          configuration C1 25 FT_D3_ (8FT)BCN__#4 HdCu - 3s; 
          } 

object node {name   OH1500_n; phases BCN; nominal_voltage 7967.43408203;  } 

object overhead_line {
          name   _1643; 
          from   OH1498_n; 
          to     _1643_n; 
          phases ABCN; 
          length 230.00000000; 
          configuration C1 25 FT_D3_ (8FT)ABCN__1/0 HdCu; 
          } 

object node {name   _1643_n; phases ABCN; nominal_voltage 7967.43408203;  } 

object overhead_line {
          name   _1643A; 
          from   _1643_n; 
          to     _1643A_n; 
          phases ABCN; 
          length 360.00000000; 
          configuration C1 25 FT_D3_ (8FT)ABCN__1/0 HdCu; 
          } 

object node {name   _1643A_n; phases ABCN; nominal_voltage 7967.43408203;  } 

object overhead_line {
          name   _1643B; 
          from   _1643A_n; 
          to     _1643B_n; 
          phases ABCN; 
          length 1100.00000000; 
          configuration C1 25 FT_D3_ (8FT)ABCN__1/0 HdCu; 
          } 

object node {name   _1643B_n; phases ABCN; nominal_voltage 7967.43408203;  } 

object fuse {
          name          F-1 L12-1; 
          from          _1643B_n; 
          to            F-1 L12-1_n; 
          phases        ACN; 
          current_limit 193.58869934; 
          mean_replacement_time 1.0 ; 
          repair_dist_type      NONE; 
          } 

object node {name   F-1 L12-1_n; phases ACN; nominal_voltage 7967.43408203;  } 

object overhead_line {
          name   _1644; 
          from   F-1 L12-1_n; 
          to     _1644_n; 
          phases ACN; 
          length 970.00000000; 
          configuration C1 25 FT_D3_ (8FT)ACN__#4 HdCu - 3s; 
          } 

object node {name   _1644_n; phases ACN; nominal_voltage 7967.43408203;  } 

object fuse {
          name          F-1 L13-1; 
          from          _1644_n; 
          to            F-1 L13-1_n; 
          phases        ACN; 
          current_limit 61.18894958; 
          mean_replacement_time 1.0 ; 
          repair_dist_type      NONE; 
          } 

object node {name   F-1 L13-1_n; phases ACN; nominal_voltage 7967.43408203;  } 

object underground_line {
          name   _1645; 
          from   F-1 L13-1_n; 
          to     _1645_n; 
          phases ACN; 
          length 600.00000000; 
          configuration _1PH UGAC__1/0 SOLID 175M FN; 
          } 

object node {name   _1645_n; phases ACN; nominal_voltage 7967.43408203;  } 

object underground_line {
          name   _1645A; 
          from   _1645_n; 
          to     _1645A_n; 
          phases ACN; 
          length 700.00000000; 
          configuration _1PH UGAC__1/0 SOLID 175M FN; 
          } 

object node {name   _1645A_n; phases ACN; nominal_voltage 7967.43408203;  } 

object underground_line {
          name   _1645B; 
          from   _1645A_n; 
          to     _1645B_n; 
          phases ACN; 
          length 800.00000000; 
          configuration _1PH UGAC__1/0 SOLID 175M FN; 
          } 

object node {name   _1645B_n; phases ACN; nominal_voltage 7967.43408203;  } 

object underground_line {
          name   _1645C; 
          from   _1645B_n; 
          to     _1645C_n; 
          phases ACN; 
          length 800.00000000; 
          configuration _1PH UGAC__1/0 SOLID 175M FN; 
          } 

object node {name   _1645C_n; phases ACN; nominal_voltage 7967.43408203;  } 

object underground_line {
          name   _1645D; 
          from   _1645C_n; 
          to     _1645D_n; 
          phases ACN; 
          length 800.00000000; 
          configuration _1PH UGAC__1/0 SOLID 175M FN; 
          } 

object node {name   _1645D_n; phases ACN; nominal_voltage 7967.43408203;  } 

object underground_line {
          name   _1645E; 
          from   _1645D_n; 
          to     _1645E_n; 
          phases ACN; 
          length 1000.00000000; 
          configuration _1PH UGAC__1/0 SOLID 175M FN; 
          } 

object node {name   _1645E_n; phases ACN; nominal_voltage 7967.43408203;  } 

object underground_line {
          name   _1645F; 
          from   _1645E_n; 
          to     _1645F_n; 
          phases ACN; 
          length 1000.00000000; 
          configuration _1PH UGAC__1/0 SOLID 175M FN; 
          } 

object node {name   _1645F_n; phases ACN; nominal_voltage 7967.43408203;  } 

object underground_line {
          name   _1645G; 
          from   _1645F_n; 
          to     _1645G_n; 
          phases ACN; 
          length 1100.00000000; 
          configuration _1PH UGAC__1/0 SOLID 175M FN; 
          } 

object node {name   _1645G_n; phases ACN; nominal_voltage 7967.43408203;  } 

object underground_line {
          name   _1645H; 
          from   _1645G_n; 
          to     _1645H_n; 
          phases ACN; 
          length 1100.00000000; 
          configuration _1PH UGAC__1/0 SOLID 175M FN; 
          } 

object node {name   _1645H_n; phases ACN; nominal_voltage 7967.43408203;  } 

object overhead_line {
          name   _1644B; 
          from   _1644_n; 
          to     _1644B_n; 
          phases ACN; 
          length 330.00000000; 
          configuration C1 25 FT_D3_ (8FT)ACN__#4 HdCu - 3s; 
          } 

object node {name   _1644B_n; phases ACN; nominal_voltage 7967.43408203;  } 

object fuse {
          name          F-1 L14-1; 
          from          _1644B_n; 
          to            F-1 L14-1_n; 
          phases        ACN; 
          current_limit 61.18894958; 
          mean_replacement_time 1.0 ; 
          repair_dist_type      NONE; 
          } 

object node {name   _1629C_n; phases ABN; nominal_voltage 7967.43408203;  } 

object overhead_line {
          name   _1630; 
          from   _1629A_n; 
          to     _1630_n; 
          phases ABCN; 
          length 230.00000000; 
          configuration _8ft CrossarmABCN__1/0 HdCu; 
          } 

object node {name   _1630_n; phases ABCN; nominal_voltage 7967.43408203;  } 

object overhead_line {
          name   OH2156; 
          from   _1630_n; 
          to     OH2156_n; 
          phases BCN; 
          length 370.00000000; 
          configuration _8ft CrossarmBCN__#4 HdCu - 3s; 
          } 

object node {name   OH2156_n; phases BCN; nominal_voltage 7967.43408203;  } 

object fuse {
          name          F-1 L3-1; 
          from          _1630_n; 
          to            F-1 L3-1_n; 
          phases        BCN; 
          current_limit 76.83215332; 
          mean_replacement_time 1.0 ; 
          repair_dist_type      NONE; 
          } 

object node {name   F-1 L3-1_n; phases BCN; nominal_voltage 7967.43408203;  } 

object overhead_line {
          name   _1630A; 
          from   F-1 L3-1_n; 
          to     _1630A_n; 
          phases BCN; 
          length 400.00000000; 
          configuration B2 25FT_D3_ (8FT_D3_)BCN__#4 HdCu - 3s; 
          } 

object node {name   _1630A_n; phases BCN; nominal_voltage 7967.43408203;  } 

object overhead_line {
          name   OH2159; 
          from   _1630A_n; 
          to     OH2159_n; 
          phases BCN; 
          length 250.00000000; 
          configuration B2 25FT_D3_ (8FT_D3_)BCN__#4 HdCu - 3s; 
          } 

object node {name   OH2159_n; phases BCN; nominal_voltage 7967.43408203;  } 

object overhead_line {
          name   _1630B; 
          from   _1630A_n; 
          to     _1630B_n; 
          phases BCN; 
          length 400.00000000; 
          configuration B2 25FT_D3_ (8FT_D3_)BCN__#4 HdCu - 3s; 
          } 

object node {name   _1630B_n; phases BCN; nominal_voltage 7967.43408203;  } 

object overhead_line {
          name   OH2160; 
          from   _1630B_n; 
          to     OH2160_n; 
          phases BCN; 
          length 150.00000000; 
          configuration B2 25FT_D3_ (8FT_D3_)BCN__#4 HdCu - 3s; 
          } 

object node {name   OH2160_n; phases BCN; nominal_voltage 7967.43408203;  } 

object overhead_line {
          name   _1630C; 
          from   _1630B_n; 
          to     _1630C_n; 
          phases BCN; 
          length 200.00000000; 
          configuration B2 25FT_D3_ (8FT_D3_)BCN__#4 HdCu - 3s; 
          } 

object node {name   _1630C_n; phases BCN; nominal_voltage 7967.43408203;  } 

object overhead_line {
          name   _1631; 
          from   _1630_n; 
          to     _1631_n; 
          phases ABCN; 
          length 410.00000000; 
          configuration _8ft CrossarmABCN__1/0 HdCu; 
          } 

object node {name   _1631_n; phases ABCN; nominal_voltage 7967.43408203;  } 

object overhead_line {
          name   OH2157; 
          from   _1631_n; 
          to     OH2157_n; 
          phases BCN; 
          length 200.00000000; 
          configuration _8ft CrossarmBCN__#4 HdCu - 3s; 
          } 

object node {name   OH2157_n; phases BCN; nominal_voltage 7967.43408203;  } 

object fuse {
          name          F-1 L4-1; 
          from          _1631_n; 
          to            F-1 L4-1_n; 
          phases        ABCN; 
          current_limit 61.18894958; 
          mean_replacement_time 1.0 ; 
          repair_dist_type      NONE; 
          } 

object node {name   F-1 L4-1_n; phases ABCN; nominal_voltage 7967.43408203;  } 

object overhead_line {
          name   _1632; 
          from   F-1 L4-1_n; 
          to     _1632_n; 
          phases ABCN; 
          length 440.00000000; 
          configuration _8ft CrossarmABCN__1/0 HdCu; 
          } 

object node {name   _1632_n; phases ABCN; nominal_voltage 7967.43408203;  } 

object overhead_line {
          name   _1632A; 
          from   _1632_n; 
          to     _1632A_n; 
          phases ABCN; 
          length 440.00000000; 
          configuration _8ft CrossarmABCN__1/0 HdCu; 
          } 

object node {name   _1632A_n; phases ABCN; nominal_voltage 7967.43408203;  } 

object overhead_line {
          name   _1633; 
          from   _1631_n; 
          to     _1633_n; 
          phases ABCN; 
          length 430.00000000; 
          configuration _8ft CrossarmABCN__1/0 HdCu; 
          } 

object node {name   _1633_n; phases ABCN; nominal_voltage 7967.43408203;  } 

object overhead_line {
          name   OH2158; 
          from   _1633_n; 
          to     OH2158_n; 
          phases BCN; 
          length 200.00000000; 
          configuration _8ft CrossarmBCN__#4 HdCu - 3s; 
          } 

object node {name   OH2158_n; phases BCN; nominal_voltage 7967.43408203;  } 

object fuse {
          name          F-1 L5-1; 
          from          _1633_n; 
          to            F-1 L5-1_n; 
          phases        ABCN; 
          current_limit 193.58869934; 
          mean_replacement_time 1.0 ; 
          repair_dist_type      NONE; 
          } 

object node {name   F-1 L5-1_n; phases ABCN; nominal_voltage 7967.43408203;  } 

object overhead_line {
          name   _1634; 
          from   F-1 L5-1_n; 
          to     _1634_n; 
          phases ABCN; 
          length 500.00000000; 
          configuration _8ft CrossarmABCN__1/0 HdCu; 
          } 

object node {name   _1634_n; phases ABCN; nominal_voltage 7967.43408203;  } 

object overhead_line {
          name   _1634A; 
          from   _1634_n; 
          to     _1634A_n; 
          phases ABCN; 
          length 500.00000000; 
          configuration _8ft CrossarmABCN__1/0 HdCu; 
          } 

object node {name   _1634A_n; phases ABCN; nominal_voltage 7967.43408203;  } 

object overhead_line {
          name   OH2162; 
          from   _1634A_n; 
          to     OH2162_n; 
          phases ABCN; 
          length 465.51086426; 
          configuration _8ft CrossarmABCN__1/0 HdCu; 
          } 

object node {name   OH2162_n; phases ABCN; nominal_voltage 7967.43408203;  } 

object overhead_line {
          name   _1634B; 
          from   OH2162_n; 
          to     _1634B_n; 
          phases ABCN; 
          length 34.48913193; 
          configuration _8ft CrossarmABCN__1/0 HdCu; 
          } 

object node {name   _1634B_n; phases ABCN; nominal_voltage 7967.43408203;  } 

object overhead_line {
          name   _1634C; 
          from   _1634B_n; 
          to     _1634C_n; 
          phases ABCN; 
          length 500.00000000; 
          configuration _8ft CrossarmABCN__1/0 HdCu; 
          } 

object node {name   _1634C_n; phases ABCN; nominal_voltage 7967.43408203;  } 

object overhead_line {
          name   _1635; 
          from   _1633_n; 
          to     _1635_n; 
          phases ABCN; 
          length 200.00000000; 
          configuration _8ft CrossarmABCN__1/0 HdCu; 
          } 

object node {name   _1635_n; phases ABCN; nominal_voltage 7967.43408203;  } 

object overhead_line {
          name   _1635A; 
          from   _1635_n; 
          to     _1635A_n; 
          phases ABCN; 
          length 440.00000000; 
          configuration _8ft CrossarmABCN__1/0 HdCu; 
          } 

object node {name   _1635A_n; phases ABCN; nominal_voltage 7967.43408203;  } 

object node {name   SW 16-4_n; phases ABCN; nominal_voltage 7967.43408203;  } 

object switch {
          name   SW 16-4; 
          from   _1635A_n; 
          to     SW 16-4_n; 
          phases ABCN; 
          status CLOSED; 
          } 

object overhead_line {
          name   _1636; 
          from   SW 16-4_n; 
          to     _1636_n; 
          phases ABCN; 
          length 200.00000000; 
          configuration C1 25 FT_D3_ (8FT)ABCN__1/0 HdCu; 
          } 

object node {name   _1636_n; phases ABCN; nominal_voltage 7967.43408203;  } 

object overhead_line {
          name   _1636A; 
          from   _1636_n; 
          to     _1636A_n; 
          phases ABCN; 
          length 780.00000000; 
          configuration C1 25 FT_D3_ (8FT)ABCN__1/0 HdCu; 
          } 

object node {name   _1636A_n; phases ABCN; nominal_voltage 7967.43408203;  } 

object fuse {
          name          F-1 L6-1; 
          from          _1636A_n; 
          to            F-1 L6-1_n; 
          phases        BCN; 
          current_limit 61.18894958; 
          mean_replacement_time 1.0 ; 
          repair_dist_type      NONE; 
          } 

object node {name   F-1 L6-1_n; phases BCN; nominal_voltage 7967.43408203;  } 

object overhead_line {
          name   _1636B; 
          from   F-1 L6-1_n; 
          to     _1636B_n; 
          phases BCN; 
          length 360.99942017; 
          configuration B2 25FT_D3_ (8FT_D3_)BCN__#4 HdCu - 3s; 
          } 

object node {name   _1636B_n; phases BCN; nominal_voltage 7967.43408203;  } 

object overhead_line {
          name   _1636B3; 
          from   _1636B_n; 
          to     _1636B3_n; 
          phases BCN; 
          length 220.00000000; 
          configuration B2 25FT_D3_ (8FT_D3_)BCN__#4 HdCu - 3s; 
          } 

object node {name   _1636B3_n; phases BCN; nominal_voltage 7967.43408203;  } 

object overhead_line {
          name   _1636B4; 
          from   _1636B_n; 
          to     _1636B4_n; 
          phases BCN; 
          length 339.00057983; 
          configuration B2 25FT_D3_ (8FT_D3_)BCN__#4 HdCu - 3s; 
          } 

object node {name   _1636B4_n; phases BCN; nominal_voltage 7967.43408203;  } 

object overhead_line {
          name   _1636B5; 
          from   _1636B4_n; 
          to     _1636B5_n; 
          phases BCN; 
          length 300.00000000; 
          configuration B2 25FT_D3_ (8FT_D3_)BCN__#4 HdCu - 3s; 
          } 

object node {name   _1636B5_n; phases BCN; nominal_voltage 7967.43408203;  } 

object overhead_line {
          name   _1637; 
          from   _1636A_n; 
          to     _1637_n; 
          phases ABCN; 
          length 365.00000000; 
          configuration C1 25 FT_D3_ (8FT)ABCN__1/0 HdCu; 
          } 

object node {name   _1637_n; phases ABCN; nominal_voltage 7967.43408203;  } 

object fuse {
          name          F-1 L7-1; 
          from          _1637_n; 
          to            F-1 L7-1_n; 
          phases        BCN; 
          current_limit 61.18894958; 
          mean_replacement_time 1.0 ; 
          repair_dist_type      NONE; 
          } 

object node {name   F-1 L7-1_n; phases BCN; nominal_voltage 7967.43408203;  } 

object overhead_line {
          name   OH199; 
          from   F-1 L7-1_n; 
          to     OH199_n; 
          phases BCN; 
          length 800.00000000; 
          configuration B2 25FT_D3_ (8FT_D3_)BCN__#4 HdCu - 3s; 
          } 

object node {name   OH199_n; phases BCN; nominal_voltage 7967.43408203;  } 

object overhead_line {
          name   _1638; 
          from   _1637_n; 
          to     _1638_n; 
          phases ABCN; 
          length 380.00000000; 
          configuration C1 25 FT_D3_ (8FT)ABCN__1/0 HdCu; 
          } 

object node {name   _1615A1_n; phases ABN; nominal_voltage 7967.43408203;  } 

object overhead_line {
          name   _1615A2; 
          from   _1615A1_n; 
          to     _1615A2_n; 
          phases ABN; 
          length 350.00000000; 
          configuration B2 25FT_D3_ (8FT_D3_)ABN__#4 HdCu - 3s; 
          } 

object node {name   _1615A2_n; phases ABN; nominal_voltage 7967.43408203;  } 

object overhead_line {
          name   _1615A3; 
          from   _1615A2_n; 
          to     _1615A3_n; 
          phases ABN; 
          length 200.00000000; 
          configuration B2 25FT_D3_ (8FT_D3_)ABN__#4 HdCu - 3s; 
          } 

object node {name   _1615A3_n; phases ABN; nominal_voltage 7967.43408203;  } 

object overhead_line {
          name   _1615A4; 
          from   _1615A3_n; 
          to     _1615A4_n; 
          phases ABN; 
          length 200.00000000; 
          configuration B2 25FT_D3_ (8FT_D3_)ABN__#4 HdCu - 3s; 
          } 

object node {name   _1615A4_n; phases ABN; nominal_voltage 7967.43408203;  } 

object overhead_line {
          name   _1616; 
          from   _1615_n; 
          to     _1616_n; 
          phases ABCN; 
          length 100.00000000; 
          configuration C2 UNDERBUILDABCN__1/0 HdCu; 
          } 

object node {name   _1616_n; phases ABCN; nominal_voltage 7967.43408203;  } 

object overhead_line {
          name   _1616A; 
          from   _1616_n; 
          to     _1616A_n; 
          phases ABCN; 
          length 1200.00000000; 
          configuration C2 UNDERBUILDABCN__477 AAC 19/1_n__#4/0 ACSR; 
          } 

object node {name   _1616A_n; phases ABCN; nominal_voltage 7967.43408203;  } 

object node {name   SW 16-3_n; phases ABCN; nominal_voltage 7967.43408203;  } 

object switch {
          name   SW 16-3; 
          from   _1616A_n; 
          to     SW 16-3_n; 
          phases ABCN; 
          status CLOSED; 
          } 

object overhead_line {
          name   _1617; 
          from   SW 16-3_n; 
          to     _1617_n; 
          phases ABCN; 
          length 200.00000000; 
          configuration C2 UNDERBUILDABCN__477 AAC 19/1_n__#4/0 ACSR; 
          } 

object node {name   _1617_n; phases ABCN; nominal_voltage 7967.43408203;  } 

object overhead_line {
          name   _1617A; 
          from   _1617_n; 
          to     _1617A_n; 
          phases ABCN; 
          length 610.00000000; 
          configuration C2 UNDERBUILDABCN__477 AAC 19/1_n__#4/0 ACSR; 
          } 

object node {name   _1617A_n; phases ABCN; nominal_voltage 7967.43408203;  } 

object overhead_line {
          name   _1618; 
          from   _1617A_n; 
          to     _1618_n; 
          phases ABCN; 
          length 150.00000000; 
          configuration _8ft CrossarmABCN__1/0 HdCu; 
          } 

object node {name   _1618_n; phases ABCN; nominal_voltage 7967.43408203;  } 

object overhead_line {
          name   _1618A; 
          from   _1618_n; 
          to     _1618A_n; 
          phases ABCN; 
          length 150.00000000; 
          configuration _8ft CrossarmABCN__1/0 HdCu; 
          } 

...